resources/Model_European_System/glm/output_current_1.csv
# output_current_1.csv run at 2000-01-01 00:01:00 UTC on 907 links
link_name,currA_mag,currA_angle,currB_mag,currB_angle,currC_mag,currC_angle
Source_Impedance,12.481946,-0.578577,7.606986,3.962267,13.462850,1.972557
TR1,12.481946,-0.578577,7.606986,3.962267,13.462850,1.972557
LINE1,468.043835,-0.843869,171.634736,3.359623,228.718125,1.260028
LINE2,468.043835,-0.843869,171.634736,3.359623,228.718125,1.260028
LINE3,468.043835,-0.843869,171.634736,3.359623,228.718125,1.260028
LINE4,468.043835,-0.843869,171.634736,3.359623,228.718125,1.260028
LINE5,468.043835,-0.843869,171.634736,3.359623,228.718125,1.260028
LINE6,468.043835,-0.843869,171.634736,3.359623,228.718125,1.260028
LINE7,468.043835,-0.843869,171.634736,3.359623,228.718125,1.260028
LINE8,468.043835,-0.843869,171.634736,3.359623,228.718125,1.260028
LINE9,468.043835,-0.843869,171.634736,3.359623,228.718125,1.260028
LINE10,468.043835,-0.843869,171.634736,3.359623,228.718125,1.260028
LINE11,468.043835,-0.843869,171.634736,3.359623,228.718125,1.260028
LINE12,468.043835,-0.843869,171.634736,3.359623,228.718125,1.260028
LINE13,468.043835,-0.843869,171.634736,3.359623,228.718125,1.260028
LINE14,468.043835,-0.843869,171.634736,3.359623,228.718125,1.260028
LINE15,0.000000,3.865039,0.000000,2.065011,0.000000,1.545864
LINE16,468.043835,-0.843869,171.634736,3.359623,228.718125,1.260028
LINE17,0.000000,3.811399,0.000000,1.545864,0.000000,1.561488
LINE18,468.043835,-0.843869,171.634736,3.359623,228.718125,1.260028
LINE19,0.000000,3.960815,0.000000,1.082217,0.000000,-1.486786
LINE20,468.043835,-0.843869,171.634736,3.359623,228.718125,1.260028
LINE21,0.000000,3.727387,0.000000,1.224114,0.000000,-1.425516
LINE22,468.043835,-0.843869,171.634736,3.359623,228.718125,1.260028
LINE23,0.000000,3.942038,0.000000,2.558061,0.000000,1.522431
LINE24,468.043835,-0.843869,171.634736,3.359623,228.718125,1.260028
LINE25,0.000000,4.306951,0.000000,2.871682,0.000000,1.538052
LINE26,0.389458,-0.856073,0.000000,4.080259,0.000000,1.560583
LINE27,467.654406,-0.843859,171.634736,3.359623,228.718125,1.260028
LINE28,0.000000,4.255049,0.000000,3.033520,0.000000,1.436922
LINE29,0.155783,-0.856074,0.000000,3.105185,0.000000,4.180234
LINE30,0.233675,-0.856073,0.000000,4.115361,0.000000,1.564508
LINE31,467.654406,-0.843859,171.634736,3.359623,228.718125,1.260028
LINE32,0.000000,4.687457,0.000000,3.184737,0.000000,1.543632
LINE33,0.155783,-0.856074,0.000000,3.935843,0.000000,1.670558
LINE34,0.233675,-0.856073,0.000000,4.395409,0.000000,4.531423
LINE35,0.000000,0.514375,0.404693,3.329519,0.000000,-1.520662
LINE36,467.654406,-0.843859,171.230227,3.359694,228.718125,1.260028
LINE37,0.000000,4.563102,0.000000,3.172159,0.000000,1.512023
LINE38,0.233675,-0.856073,0.000000,4.370006,0.000000,1.653363
LINE39,0.000000,0.706292,0.219209,3.329519,0.000000,-1.469152
LINE40,0.000000,2.897898,0.185484,3.329518,0.000000,1.947145
LINE41,467.654406,-0.843859,171.230227,3.359694,228.718125,1.260028
LINE42,0.000000,3.830159,0.000000,2.129468,0.000000,2.213446
LINE43,0.000000,4.687457,0.000000,3.116661,0.000000,1.522431
LINE44,0.233675,-0.856073,0.000000,3.649056,0.000000,2.529857
LINE45,0.000000,1.422904,0.219209,3.329519,0.000000,-1.529775
LINE46,0.000000,2.538558,0.185484,3.329518,0.000000,1.388659
LINE47,467.654406,-0.843859,171.230227,3.359694,228.718125,1.260028
LINE48,0.000000,4.028066,0.000000,2.130925,0.000000,2.168921
LINE49,0.000000,4.687457,0.000000,2.653013,0.000000,3.116661
LINE50,0.233675,-0.856073,0.000000,3.163256,0.000000,1.573918
LINE51,0.000000,1.455935,0.219209,3.329519,0.000000,4.676774
LINE52,467.654406,-0.843859,171.230227,3.359694,228.718125,1.260028
LINE53,0.000000,3.770565,0.000000,2.676628,0.000000,1.883979
LINE54,0.000000,3.612452,0.000000,2.109033,0.000000,2.061143
LINE55,0.000000,4.365707,0.000000,3.361639,0.000000,3.116661
LINE56,0.233675,-0.856073,0.000000,2.095073,0.000000,4.602098
LINE57,0.000000,0.532958,0.219209,3.329519,0.000000,1.581813
LINE58,467.654406,-0.843859,171.230227,3.359694,228.718125,1.260028
LINE59,0.000000,3.467020,0.000000,1.897281,0.000000,1.772947
LINE60,0.000000,3.720996,0.000000,1.454820,0.000000,1.963551
LINE61,0.000000,4.306951,0.000000,3.281809,0.000000,3.116661
LINE62,0.233675,-0.856073,0.000000,0.000795,0.000000,-1.566432
LINE63,0.000000,2.013178,0.219209,3.329519,0.000000,-1.436400
LINE64,3.927506,-0.854022,171.230227,3.359694,228.718125,1.260028
LINE65,463.727105,-0.843773,0.000000,0.252852,0.000000,-1.512263
LINE66,0.000000,-1.261026,0.000000,2.065997,0.000000,1.557002
LINE67,0.000000,3.516175,0.000000,0.157948,0.000000,1.988197
LINE68,0.000000,4.522308,0.000000,3.116661,0.000000,4.703081
LINE69,0.233675,-0.856073,0.000000,3.348532,0.000000,1.514157
LINE70,0.000000,2.854661,0.219209,3.329519,0.000000,1.574492
LINE71,3.927506,-0.854022,171.230227,3.359694,228.718125,1.260028
LINE72,371.313098,-0.843497,0.000000,-0.139101,0.000000,-1.314364
LINE73,92.414077,-0.844879,0.000000,4.097024,0.000000,-1.561655
LINE74,0.000000,4.607746,0.000000,1.368559,0.000000,1.611257
LINE75,0.000000,3.151963,0.000000,0.524918,0.000000,2.075106
LINE76,0.000000,4.464796,0.000000,3.063140,0.000000,4.698524
LINE77,0.000000,1.396202,0.219209,3.329519,0.000000,4.677047
LINE78,3.927506,-0.854022,171.230227,3.359694,228.718125,1.260028
LINE79,0.000000,3.394901,0.000000,2.635208,0.000000,1.023514
LINE80,0.000000,2.962153,0.000000,0.454407,0.000000,2.060129
LINE81,0.000000,4.522308,0.000000,3.103148,0.000000,4.697005
LINE82,0.000000,0.557186,0.219209,3.329519,0.000000,4.626122
LINE83,3.927506,-0.854022,171.230227,3.359694,228.718125,1.260028
LINE84,0.000000,2.592429,0.000000,2.223777,0.000000,4.559683
LINE85,0.000000,2.958123,0.000000,0.461745,0.000000,2.083184
LINE86,0.000000,4.551929,0.000000,3.095830,0.000000,4.690582
LINE87,3.927506,-0.854022,171.230227,3.359694,228.718125,1.260028
LINE88,0.000000,1.585604,0.000000,4.022424,0.000000,-0.680538
LINE89,0.000000,2.957943,0.000000,0.506306,0.000000,2.085560
LINE90,0.000000,4.534808,0.000000,3.071237,0.000000,4.682249
LINE91,3.927506,-0.854022,171.230227,3.359694,228.718125,1.260028
LINE92,0.000000,3.233136,0.000000,0.261856,0.000000,2.062662
LINE93,0.000000,3.902059,0.000000,3.116661,0.000000,3.116661
LINE94,3.927506,-0.854022,171.230227,3.359694,228.718125,1.260028
LINE95,0.000000,3.356187,0.000000,0.515724,0.000000,2.332468
LINE96,0.000000,2.653013,0.000000,3.116661,0.000000,4.671833
LINE97,3.927506,-0.854022,171.230227,3.359694,228.718125,1.260028
LINE98,0.000000,2.982682,0.000000,0.307437,0.000000,3.794939
LINE99,0.000000,3.116661,0.000000,0.000000,0.000000,3.116661
LINE100,3.927506,-0.854022,171.230227,3.359694,228.718125,1.260028
LINE101,0.000000,2.446891,0.000000,0.007748,0.000000,2.458571
LINE102,0.000000,0.000000,0.000000,1.545864,0.000000,0.000000
LINE103,0.265666,-0.851984,0.683747,3.327221,0.576301,1.262282
LINE104,3.661840,-0.854170,170.546842,3.359824,228.141825,1.260023
LINE105,0.000000,2.591235,0.000000,-0.037601,0.000000,2.344259
LINE106,0.265666,-0.851984,0.683747,3.327221,0.576301,1.262282
LINE107,3.661840,-0.854170,170.546842,3.359824,228.141825,1.260023
LINE108,0.000000,2.589635,0.000000,0.114230,0.000000,2.342065
LINE109,0.265666,-0.851984,0.683747,3.327221,0.576301,1.262282
LINE110,3.661840,-0.854170,170.546842,3.359824,228.141825,1.260023
LINE111,0.000000,2.611748,0.000000,0.073895,0.000000,2.283786
LINE112,0.265666,-0.851984,0.683747,3.327221,0.576301,1.262282
LINE113,3.661840,-0.854170,170.546842,3.359824,228.141825,1.260023
LINE114,0.000000,2.618521,0.000000,0.074295,0.000000,2.286672
LINE115,0.265666,-0.851984,0.683747,3.327221,0.576301,1.262282
LINE116,0.220144,-0.853338,0.464160,3.330097,0.579697,1.261676
LINE117,3.441697,-0.854223,170.082888,3.359906,227.562129,1.260018
LINE118,0.000000,2.621166,0.000000,0.069691,0.000000,2.296132
LINE119,0.265666,-0.851984,0.683747,3.327221,0.576301,1.262282
LINE120,0.000000,3.116661,0.000000,0.379960,0.000000,-0.024932
LINE121,0.220144,-0.853338,0.464160,3.330097,0.579697,1.261676
LINE122,3.441697,-0.854223,170.082888,3.359906,227.562129,1.260018
LINE123,0.000000,2.620915,0.000000,0.030051,0.000000,2.250288
LINE124,0.265666,-0.851984,0.683747,3.327221,0.576301,1.262282
LINE125,0.000000,3.179080,0.000000,0.296819,0.000000,-1.564488
LINE126,0.220144,-0.853338,0.464160,3.330097,0.579697,1.261676
LINE127,3.441697,-0.854223,170.082888,3.359906,227.562129,1.260018
LINE128,0.000000,2.706657,0.000000,0.100785,0.000000,2.272379
LINE129,0.265666,-0.851984,0.683747,3.327221,0.576301,1.262282
LINE130,0.000000,3.216329,0.000000,0.438716,0.000000,4.703081
LINE131,0.220144,-0.853338,0.000000,1.364335,0.000000,-1.246971
LINE132,0.000000,0.623127,0.464160,3.330097,0.579697,1.261676
LINE133,3.441697,-0.854223,170.082888,3.359906,227.562129,1.260018
LINE134,0.000000,2.742410,0.000000,0.035179,0.000000,2.292649
LINE135,0.265666,-0.851984,0.683747,3.327221,0.576301,1.262282
LINE136,0.000000,3.580308,0.000000,0.595318,0.000000,4.671833
LINE137,0.220144,-0.853338,0.000000,1.044791,0.000000,-1.003454
LINE138,0.000000,0.620319,0.464160,3.330097,0.579697,1.261676
LINE139,3.441697,-0.854223,170.082888,3.359906,227.562129,1.260018
LINE140,0.000000,2.708128,0.000000,0.040620,0.000000,2.323958
LINE141,0.265666,-0.851984,0.683747,3.327221,0.576301,1.262282
LINE142,0.000000,3.281809,0.000000,0.808049,0.000000,4.656217
LINE143,0.220144,-0.853338,0.000000,1.525773,0.000000,-1.318596
LINE144,0.000000,0.620911,0.464160,3.330097,0.579697,1.261676
LINE145,3.441697,-0.854223,170.082888,3.359906,227.562129,1.260018
LINE146,0.000000,2.639209,0.000000,0.160182,0.000000,2.218445
LINE147,0.265666,-0.851984,0.683747,3.327221,0.576301,1.262282
LINE148,0.000000,3.438411,0.000000,0.957862,0.000000,1.582307
LINE149,0.220144,-0.853338,0.000000,1.272716,0.000000,-1.273261
LINE150,0.000000,0.441406,0.000000,-0.007742,0.579697,1.261676
LINE151,0.000000,2.169508,0.464160,3.330097,0.000000,1.530526
LINE152,3.441697,-0.854223,170.082888,3.359906,227.562129,1.260018
LINE153,0.000000,2.511592,0.000000,-0.148202,0.000000,2.321396
LINE154,0.265666,-0.851984,0.683747,3.327221,0.576301,1.262282
LINE155,0.000000,3.314056,0.000000,1.026718,0.000000,1.582307
LINE156,0.220144,-0.853338,0.000000,0.933523,0.000000,-1.352524
LINE157,0.000000,0.430460,0.000000,-0.016768,0.579697,1.261676
LINE158,0.000000,2.259965,0.464160,3.330097,0.000000,1.529117
LINE159,3.441697,-0.854223,170.082888,3.359906,227.562129,1.260018
LINE160,0.000000,0.975424,0.000000,3.148598,0.000000,3.172326
LINE161,0.000000,3.179512,0.233575,3.327220,0.000000,4.664765
LINE162,0.265666,-0.851984,0.450173,3.327222,0.576301,1.262282
LINE163,0.000000,3.314056,0.000000,1.545864,0.000000,4.703081
LINE164,0.220144,-0.853338,0.000000,0.938131,0.000000,-1.354246
LINE165,0.000000,0.438863,0.000000,-0.014513,0.579697,1.261676
LINE166,0.000000,2.197910,0.464160,3.330097,0.000000,1.539938
LINE167,3.441697,-0.854223,170.082888,3.359906,227.562129,1.260018
LINE168,0.000000,-0.830967,0.000000,-0.830967,0.000000,4.308145
LINE169,0.000000,-0.255310,0.233575,3.327220,0.000000,4.620695
LINE170,0.265666,-0.851984,0.450173,3.327222,0.576301,1.262282
LINE171,0.000000,3.361639,0.000000,1.545864,0.000000,-1.548888
LINE172,0.220144,-0.853338,0.000000,0.819331,0.000000,-1.453726
LINE173,0.000000,0.436535,0.000000,-0.126704,0.000000,1.577473
LINE174,0.000000,2.130497,0.000000,0.440530,0.579697,1.261676
LINE175,0.000000,2.071047,0.464160,3.330097,0.000000,1.536493
LINE176,3.441697,-0.854223,170.082888,3.359906,227.562129,1.260018
LINE177,0.000000,-1.130583,0.233575,3.327220,0.000000,4.700237
LINE178,0.265666,-0.851984,0.450173,3.327222,0.000000,0.301397
LINE179,0.000000,4.095428,0.000000,4.358551,0.576301,1.262282
LINE180,0.000000,3.902059,0.000000,1.545864,0.000000,-1.564488
LINE181,0.220144,-0.853338,0.000000,0.826907,0.000000,-1.423157
LINE182,0.000000,0.369936,0.000000,-0.293261,0.000000,1.653696
LINE183,0.000000,2.180133,0.000000,0.450791,0.579697,1.261676
LINE184,0.000000,2.614695,0.464160,3.330097,0.000000,1.487568
LINE185,3.441697,-0.854223,170.082888,3.359906,227.562129,1.260018
LINE186,0.265666,-0.851984,0.450173,3.327222,0.000000,0.007154
LINE187,0.000000,4.081156,0.000000,4.341847,0.576301,1.262282
LINE188,0.000000,3.281809,0.000000,1.545864,0.000000,0.000000
LINE189,0.220144,-0.853338,0.000000,0.958872,0.000000,-1.411240
LINE190,0.000000,3.546738,0.000000,-0.290101,0.000000,1.525682
LINE191,0.000000,0.437627,0.000000,-1.491340,0.000000,1.671959
LINE192,0.000000,1.141008,0.000000,0.354017,0.579697,1.261676
LINE193,0.000000,2.663759,0.464160,3.330097,0.000000,1.390973
LINE194,3.441697,-0.854223,170.082888,3.359906,227.562129,1.260018
LINE195,0.265666,-0.851984,0.450173,3.327222,0.000000,-0.098177
LINE196,0.000000,1.382333,0.000000,4.692452,0.183561,1.262280
LINE197,0.000000,4.145819,0.000000,4.330747,0.392740,1.262282
LINE198,0.000000,3.580308,0.000000,1.082217,0.000000,1.530241
LINE199,0.220144,-0.853338,0.000000,0.947607,0.000000,-1.425244
LINE200,0.000000,2.237267,0.000000,-0.495924,0.000000,1.171923
LINE201,0.000000,-0.554077,0.000000,1.184627,0.000000,1.527265
LINE202,0.000000,2.759651,0.000000,0.385963,0.579697,1.261676
LINE203,0.000000,2.619242,0.464160,3.330097,0.000000,1.377236
LINE204,3.441697,-0.854223,170.082888,3.359906,227.562129,1.260018
LINE205,0.265666,-0.851984,0.000000,3.713512,0.000000,1.749108
LINE206,0.000000,2.298361,0.450173,3.327222,0.000000,-0.657754
LINE207,0.000000,2.928345,0.000000,3.015208,0.183561,1.262280
LINE208,0.000000,4.050169,0.000000,4.535130,0.392740,1.262282
LINE209,0.000000,2.871682,0.000000,0.618569,0.000000,-0.024932
LINE210,0.220144,-0.853338,0.000000,1.017637,0.000000,-1.286368
LINE211,0.000000,0.400498,0.000000,0.169511,0.000000,1.854168
LINE212,0.000000,2.536859,0.000000,0.475244,0.579697,1.261676
LINE213,0.000000,2.630680,0.464160,3.330097,0.000000,1.435819
LINE214,3.441697,-0.854223,170.082888,3.359906,227.562129,1.260018
LINE215,0.265666,-0.851984,0.000000,3.205133,0.000000,1.757463
LINE216,0.000000,2.186468,0.450173,3.327222,0.000000,-0.905630
LINE217,0.000000,4.153673,0.000000,3.837421,0.392740,1.262282
LINE218,0.000000,0.000000,0.000000,-0.024932,0.000000,3.116661
LINE219,0.220144,-0.853338,0.000000,1.015252,0.000000,-1.317252
LINE220,0.000000,-0.340799,0.000000,-0.080950,0.000000,1.981765
LINE221,0.000000,2.620198,0.000000,0.521843,0.579697,1.261676
LINE222,0.000000,2.660657,0.464160,3.330097,0.000000,1.441431
LINE223,3.441697,-0.854223,170.082888,3.359906,227.562129,1.260018
LINE224,0.265666,-0.851984,0.000000,0.559784,0.000000,1.402384
LINE225,0.000000,1.924629,0.450173,3.327222,0.000000,4.389716
LINE226,0.000000,-1.300669,0.000000,3.767361,0.392740,1.262282
LINE227,0.220144,-0.853338,0.000000,0.768907,0.000000,1.062150
LINE228,0.000000,-0.649957,0.000000,-0.649572,0.000000,2.191900
LINE229,0.000000,2.740836,0.000000,0.512617,0.579697,1.261676
LINE230,0.000000,2.682525,0.464160,3.330097,0.000000,1.500722
LINE231,3.441697,-0.854223,170.082888,3.359906,227.562129,1.260018
LINE232,0.000000,0.302126,0.450173,3.327222,0.000000,1.631523
LINE233,0.000000,1.930474,0.000000,4.505057,0.000000,1.383502
LINE234,0.000000,-1.165340,0.000000,3.864992,0.392740,1.262282
LINE235,0.220144,-0.853338,0.000000,1.155695,0.000000,0.925180
LINE236,0.000000,-0.268294,0.000000,-0.830148,0.000000,1.347115
LINE237,0.000000,3.172768,0.000000,0.567190,0.579697,1.261676
LINE238,0.000000,2.739488,0.464160,3.330097,0.000000,1.560118
LINE239,3.441697,-0.854223,170.082888,3.359906,227.562129,1.260018
LINE240,0.000000,0.656824,0.450173,3.327222,0.000000,1.641620
LINE241,0.000000,4.386845,0.000000,3.324659,0.392740,1.262282
LINE242,0.220144,-0.853338,0.000000,0.211925,0.000000,1.501364
LINE243,0.000000,-0.907809,0.000000,-1.480756,0.000000,1.216632
LINE244,0.000000,3.627979,0.000000,0.597598,0.579697,1.261676
LINE245,0.000000,2.761156,0.464160,3.330097,0.000000,1.553600
LINE246,3.441697,-0.854223,170.082888,3.359906,227.562129,1.260018
LINE247,0.000000,0.848961,0.242074,3.327222,0.000000,1.895173
LINE248,0.000000,2.838991,0.208099,3.327222,0.000000,1.571835
LINE249,0.000000,-1.181605,0.000000,2.533629,0.392740,1.262282
LINE250,0.220144,-0.853338,0.000000,2.228604,0.000000,-1.568941
LINE251,0.000000,3.555044,0.000000,-0.288844,0.000000,1.460698
LINE252,0.000000,2.745595,0.000000,0.688988,0.579697,1.261676
LINE253,0.000000,2.794668,0.464160,3.330097,0.000000,1.562869
LINE254,0.201243,-0.856142,0.000000,0.064752,0.000000,1.534016
LINE255,3.240454,-0.854104,170.082888,3.359906,227.562129,1.260018
LINE256,0.000000,-0.564787,0.000000,3.990990,0.392740,1.262282
LINE257,0.220144,-0.853338,0.000000,4.461724,0.000000,1.601454
LINE258,0.000000,-1.191142,0.000000,-0.744477,0.000000,2.617552
LINE259,0.000000,2.788005,0.000000,0.626954,0.579697,1.261676
LINE260,0.000000,2.797058,0.464160,3.330097,0.000000,1.564926
LINE261,0.201243,-0.856142,0.000000,0.037702,0.000000,1.535136
LINE262,3.240454,-0.854104,170.082888,3.359906,227.562129,1.260018
LINE263,0.000000,3.227039,0.000000,3.428857,0.392740,1.262282
LINE264,0.220144,-0.853338,0.000000,-0.884149,0.000000,4.699940
LINE265,0.000000,3.808440,0.000000,-0.371438,0.000000,2.316396
LINE266,0.000000,3.060336,0.000000,0.685852,0.579697,1.261676
LINE267,0.000000,2.281327,0.238468,3.330098,0.000000,4.703061
LINE268,0.000000,2.737056,0.225692,3.330097,0.000000,1.671375
LINE269,0.201243,-0.856142,0.000000,-0.005659,0.000000,1.535218
LINE270,0.000000,0.048151,0.000000,3.316201,0.230761,1.259309
LINE271,3.240454,-0.854104,170.082888,3.359906,227.331368,1.260019
LINE272,0.220144,-0.853338,0.000000,0.275470,0.000000,4.278582
LINE273,0.000000,3.261604,0.000000,-1.212239,0.000000,2.352098
LINE274,0.000000,3.299553,0.000000,0.530067,0.579697,1.261676
LINE275,0.000000,2.072457,0.238468,3.330098,0.000000,1.581820
LINE276,0.000000,2.601655,0.225692,3.330097,0.000000,1.624099
LINE277,0.201243,-0.856142,0.000000,0.007443,0.000000,1.537260
LINE278,0.000000,0.063684,0.000000,3.452653,0.230761,1.259309
LINE279,3.240454,-0.854104,170.082888,3.359906,227.331368,1.260019
LINE280,0.220144,-0.853338,0.000000,4.150783,0.000000,4.674183
LINE281,0.000000,3.299629,0.000000,4.552289,0.000000,3.257531
LINE282,0.000000,2.167687,0.000000,0.637449,0.579697,1.261676
LINE283,0.000000,2.828569,0.225692,3.330097,0.000000,1.645735
LINE284,0.201243,-0.856142,0.000000,-0.001888,0.000000,1.546572
LINE285,0.000000,-0.232719,0.000000,3.460184,0.230761,1.259309
LINE286,1.587989,-0.850937,168.530545,3.360113,201.641254,1.260078
LINE287,1.652481,-0.857147,1.552741,3.337349,25.690117,1.259561
LINE288,0.220144,-0.853338,0.000000,-0.551135,0.000000,1.997533
LINE289,0.000000,-1.028223,0.000000,0.580915,0.000000,-1.530569
LINE290,0.000000,3.466111,0.000000,-0.140592,0.373584,1.261676
LINE291,0.000000,0.042338,0.000000,1.470237,0.206113,1.261674
LINE292,0.000000,2.829685,0.225692,3.330097,0.000000,4.410216
LINE293,0.201243,-0.856142,0.000000,-0.040677,0.000000,1.547953
LINE294,0.000000,-0.209562,0.000000,3.636929,0.230761,1.259309
LINE295,1.587989,-0.850937,168.530545,3.360113,201.641254,1.260078
LINE296,1.652481,-0.857147,1.552741,3.337349,25.690117,1.259561
LINE297,0.000000,-1.538552,0.000000,-0.146933,0.373584,1.261676
LINE298,0.000000,-0.355557,0.000000,2.156753,0.206113,1.261674
LINE299,0.000000,3.204917,0.225692,3.330097,0.000000,1.713489
LINE300,0.201243,-0.856142,0.000000,0.007534,0.000000,1.546631
LINE301,0.000000,-0.179608,0.000000,3.712029,0.230761,1.259309
LINE302,1.587989,-0.850937,168.530545,3.360113,201.641254,1.260078
LINE303,1.652481,-0.857147,1.552741,3.337349,25.690117,1.259561
LINE304,0.000000,-0.251073,0.000000,2.639465,0.373584,1.261676
LINE305,0.000000,-0.564829,0.000000,1.816487,0.206113,1.261674
LINE306,0.000000,3.958670,0.225692,3.330097,0.000000,4.704279
LINE307,0.201243,-0.856142,0.000000,-0.125250,0.000000,1.546142
LINE308,0.000000,0.049134,0.000000,3.601936,0.230761,1.259309
LINE309,1.587989,-0.850937,168.530545,3.360113,201.641254,1.260078
LINE310,1.652481,-0.857147,1.552741,3.337349,25.690117,1.259561
LINE311,0.000000,-0.408503,0.000000,0.980197,0.373584,1.261676
LINE312,0.000000,3.072411,0.000000,1.191568,0.206113,1.261674
LINE313,0.000000,2.255856,0.225692,3.330097,0.000000,-1.402237
LINE314,0.201243,-0.856142,0.000000,-0.142150,0.000000,1.545177
LINE315,0.000000,-0.218509,0.000000,3.479780,0.230761,1.259309
LINE316,0.467871,-0.858033,0.000000,2.609816,0.000000,1.583843
LINE317,1.120135,-0.847973,168.530545,3.360113,201.641254,1.260078
LINE318,1.652481,-0.857147,1.552741,3.337349,25.690117,1.259561
LINE319,0.000000,3.696030,0.000000,0.298711,0.373584,1.261676
LINE320,0.000000,1.778668,0.000000,0.174798,0.206113,1.261674
LINE321,0.201243,-0.856142,0.000000,-0.147681,0.000000,1.545761
LINE322,0.000000,0.318984,0.000000,3.459329,0.230761,1.259309
LINE323,0.467871,-0.858033,0.000000,2.634738,0.000000,1.586030
LINE324,1.120135,-0.847973,168.530545,3.360113,201.641254,1.260078
LINE325,1.652481,-0.857147,1.552741,3.337349,25.690117,1.259561
LINE326,0.000000,4.170156,0.000000,2.133641,0.206113,1.261674
LINE327,0.201243,-0.856142,0.000000,-0.127186,0.000000,1.544044
LINE328,0.000000,-0.500523,0.000000,-0.170798,0.230761,1.259309
LINE329,0.467871,-0.858033,0.000000,2.653589,0.000000,1.584197
LINE330,0.000000,4.696096,0.000000,-0.097392,201.391112,1.260111
LINE331,1.120135,-0.847973,168.530545,3.360113,0.250231,1.233311
LINE332,1.652481,-0.857147,1.552741,3.337349,25.690117,1.259561
LINE333,0.201243,-0.856142,0.000000,-0.010289,0.000000,1.545183
LINE334,0.000000,2.553048,0.000000,1.490215,0.230761,1.259309
LINE335,0.467871,-0.858033,0.000000,2.680085,0.000000,1.587084
LINE336,0.000000,-0.808480,0.000000,0.742755,201.391112,1.260111
LINE337,0.000000,3.830534,0.238358,3.344181,0.000000,1.525676
LINE338,1.120135,-0.847973,168.292217,3.360136,0.250231,1.233311
LINE339,1.652481,-0.857147,1.552741,3.337349,25.690117,1.259561
LINE340,0.201243,-0.856142,0.000000,-0.001265,0.000000,1.545168
LINE341,0.000000,0.598203,0.000000,0.598203,0.230761,1.259309
LINE342,0.227251,-0.858034,0.000000,0.302793,0.000000,1.556882
LINE343,0.240620,-0.858033,0.000000,2.711144,0.000000,1.587265
LINE344,0.000000,3.860623,0.238358,3.344181,0.000000,1.526769
LINE345,1.120135,-0.847973,168.292217,3.360136,0.250231,1.233311
LINE346,1.652481,-0.857147,1.552741,3.337349,25.690117,1.259561
LINE347,0.201243,-0.856142,0.000000,-0.039834,0.000000,1.541275
LINE348,0.227251,-0.858034,0.000000,2.828264,0.000000,1.490699
LINE349,0.240620,-0.858033,0.000000,2.672641,0.000000,1.598833
LINE350,0.000000,3.648776,0.238358,3.344181,0.000000,1.525709
LINE351,1.120135,-0.847973,168.292217,3.360136,0.250231,1.233311
LINE352,1.652481,-0.857147,1.552741,3.337349,25.690117,1.259561
LINE353,0.201243,-0.856142,0.000000,0.110110,0.000000,1.541557
LINE354,0.240620,-0.858033,0.000000,2.390916,0.000000,1.602260
LINE355,0.000000,3.456510,0.238358,3.344181,0.000000,1.515694
LINE356,1.120135,-0.847973,168.292217,3.360136,0.250231,1.233311
LINE357,1.652481,-0.857147,1.552741,3.337349,25.690117,1.259561
LINE358,0.201243,-0.856142,0.000000,0.243771,0.000000,1.552838
LINE359,0.240620,-0.858033,0.000000,2.628211,0.000000,2.111769
LINE360,0.000000,3.336041,0.238358,3.344181,0.000000,1.484685
LINE361,1.120135,-0.847973,168.292217,3.360136,0.250231,1.233311
LINE362,1.652481,-0.857147,1.552741,3.337349,25.690117,1.259561
LINE363,0.201243,-0.856142,0.000000,0.419391,0.000000,1.583877
LINE364,0.240620,-0.858033,0.000000,2.733726,0.000000,-0.347471
LINE365,0.000000,3.677267,0.238358,3.344181,0.000000,1.479241
LINE366,1.120135,-0.847973,168.292217,3.360136,0.250231,1.233311
LINE367,1.652481,-0.857147,1.552741,3.337349,25.690117,1.259561
LINE368,0.201243,-0.856142,0.000000,-0.884813,0.000000,1.595251
LINE369,0.240620,-0.858033,0.000000,2.726095,0.000000,1.459534
LINE370,0.000000,4.411064,0.238358,3.344181,0.000000,1.469677
LINE371,1.120135,-0.847973,168.292217,3.360136,0.250231,1.233311
LINE372,1.652481,-0.857147,1.552741,3.337349,25.690117,1.259561
LINE373,0.201243,-0.856142,0.000000,0.563154,0.000000,1.902780
LINE374,0.240620,-0.858033,0.000000,3.035966,0.000000,4.511364
LINE375,0.000000,3.365929,0.238358,3.344181,0.000000,1.673676
LINE376,1.120135,-0.847973,168.292217,3.360136,0.250231,1.233311
LINE377,1.652481,-0.857147,1.552741,3.337349,1.449280,1.259001
LINE378,0.000000,1.173264,0.000000,-1.072994,24.240837,1.259594
LINE379,0.201243,-0.856142,0.000000,0.871030,0.000000,4.595349
LINE380,0.240620,-0.858033,0.000000,-0.216479,0.000000,-1.570470
LINE381,0.000000,3.257055,0.238358,3.344181,0.000000,2.462921
LINE382,1.120135,-0.847973,168.292217,3.360136,0.250231,1.233311
LINE383,1.652481,-0.857147,1.552741,3.337349,1.449280,1.259001
LINE384,0.000000,0.471346,0.000000,3.493796,24.240837,1.259594
LINE385,0.000000,2.417081,0.000000,-0.373468,0.000000,4.691456
LINE386,0.201243,-0.856142,0.000000,-0.863464,0.000000,1.042398
LINE387,0.240620,-0.858033,0.000000,-0.731889,0.000000,1.663880
LINE388,0.000000,3.078856,0.238358,3.344181,0.000000,1.310902
LINE389,1.120135,-0.847973,168.292217,3.360136,0.250231,1.233311
LINE390,1.652481,-0.857147,1.552741,3.337349,1.449280,1.259001
LINE391,0.000000,0.479489,0.000000,3.484066,24.240837,1.259594
LINE392,0.000000,2.348510,0.000000,-0.377242,0.000000,4.692170
LINE393,0.000000,3.740867,0.238358,3.344181,0.000000,-1.512597
LINE394,1.120135,-0.847973,168.292217,3.360136,0.250231,1.233311
LINE395,0.000000,0.519679,0.000000,-0.863625,0.344846,1.259002
LINE396,1.652481,-0.857147,1.552741,3.337349,1.104434,1.259000
LINE397,0.000000,0.764128,0.000000,3.471229,24.240837,1.259594
LINE398,0.000000,2.252985,0.000000,-0.382404,0.000000,4.685872
LINE399,0.000000,-0.551807,0.238358,3.344181,0.000000,-1.504490
LINE400,1.120135,-0.847973,168.292217,3.360136,0.250231,1.233311
LINE401,0.000000,0.623987,0.000000,-0.834832,0.344846,1.259002
LINE402,1.652481,-0.857147,1.552741,3.337349,1.104434,1.259000
LINE403,0.000000,0.558976,0.000000,3.261878,24.240837,1.259594
LINE404,0.000000,2.918190,0.000000,-0.650769,0.000000,4.675946
LINE405,0.000000,3.549841,0.238358,3.344181,0.000000,4.681008
LINE406,1.120135,-0.847973,168.292217,3.360136,0.250231,1.233311
LINE407,0.000000,0.572817,0.000000,-0.786411,0.344846,1.259002
LINE408,1.652481,-0.857147,1.552741,3.337349,1.104434,1.259000
LINE409,0.000000,-0.287817,0.000000,3.706159,0.000000,1.697709
LINE410,0.000000,0.576209,0.000000,3.264897,24.240837,1.259594
LINE411,0.000000,1.582733,0.000000,-0.420037,0.000000,4.666770
LINE412,1.120135,-0.847973,168.292217,3.360136,0.250231,1.233311
LINE413,0.000000,0.799089,0.000000,-1.090165,0.344846,1.259002
LINE414,1.652481,-0.857147,1.552741,3.337349,1.104434,1.259000
LINE415,0.000000,-0.285805,0.000000,3.762940,0.000000,1.706475
LINE416,0.000000,0.837858,0.000000,3.516939,24.240837,1.259594
LINE417,0.000000,2.263296,0.000000,-0.468582,0.000000,4.630356
LINE418,1.120135,-0.847973,168.292217,3.360136,0.250231,1.233311
LINE419,0.000000,1.260705,0.000000,-1.237034,0.344846,1.259002
LINE420,1.652481,-0.857147,1.552741,3.337349,1.104434,1.259000
LINE421,0.000000,-0.299731,0.000000,3.815957,0.000000,1.698908
LINE422,0.000000,1.058926,0.000000,3.237272,24.240837,1.259594
LINE423,0.000000,1.650190,0.000000,-0.582127,0.000000,4.644941
LINE424,1.120135,-0.847973,168.292217,3.360136,0.250231,1.233311
LINE425,0.000000,4.539191,0.000000,4.539191,0.000000,1.388294
LINE426,0.000000,1.270756,0.000000,-1.120500,0.344846,1.259002
LINE427,1.652481,-0.857147,1.552741,3.337349,1.104434,1.259000
LINE428,0.000000,-0.303783,0.000000,3.814033,0.000000,1.717999
LINE429,0.000000,2.206757,0.000000,2.655593,24.240837,1.259594
LINE430,0.000000,1.770771,0.000000,-0.574199,0.000000,4.651446
LINE431,1.120135,-0.847973,168.292217,3.360136,0.250231,1.233311
LINE432,0.000000,-1.335997,0.000000,0.261635,0.000000,3.719104
LINE433,0.000000,1.279870,0.000000,-1.190500,0.344846,1.259002
LINE434,1.652481,-0.857147,1.552741,3.337349,1.104434,1.259000
LINE435,0.000000,-0.303232,0.000000,3.843525,0.000000,1.748503
LINE436,0.000000,-0.127402,0.000000,3.077918,24.240837,1.259594
LINE437,0.000000,1.824207,0.000000,-0.624069,0.000000,4.638389
LINE438,1.120135,-0.847973,168.292217,3.360136,0.250231,1.233311
LINE439,0.000000,-0.631009,0.000000,-0.631009,0.000000,2.161885
LINE440,0.000000,1.319688,0.000000,-1.328030,0.344846,1.259002
LINE441,1.652481,-0.857147,1.552741,3.337349,1.104434,1.259000
LINE442,0.000000,-0.348450,0.000000,3.853719,0.000000,1.825355
LINE443,0.000000,3.219619,0.000000,-0.125794,24.240837,1.259594
LINE444,0.000000,1.691433,0.000000,-0.618801,0.000000,4.628067
LINE445,1.120135,-0.847973,168.292217,3.360136,0.250231,1.233311
LINE446,0.000000,0.006397,0.000000,0.006397,0.000000,2.244682
LINE447,0.000000,1.333189,0.000000,-1.266281,0.344846,1.259002
LINE448,1.652481,-0.857147,1.552741,3.337349,1.104434,1.259000
LINE449,0.000000,-0.321836,0.000000,3.777272,0.000000,1.872706
LINE450,0.000000,0.598526,0.000000,3.119413,24.240837,1.259594
LINE451,0.000000,1.880261,0.000000,-0.601163,0.000000,4.625337
LINE452,1.120135,-0.847973,168.292217,3.360136,0.250231,1.233311
LINE453,0.000000,4.566983,0.000000,1.369116,0.000000,1.369116
LINE454,0.000000,1.244629,0.000000,-1.338350,0.344846,1.259002
LINE455,1.652481,-0.857147,1.552741,3.337349,1.104434,1.259000
LINE456,0.000000,-0.443734,0.000000,3.628382,0.000000,1.828141
LINE457,0.000000,3.171000,0.000000,3.091136,24.240837,1.259594
LINE458,0.000000,2.028845,0.000000,-0.347485,0.000000,4.623849
LINE459,0.921809,-0.847277,168.292217,3.360136,0.250231,1.233311
LINE460,0.000000,3.666554,0.000000,4.333962,0.000000,0.965335
LINE461,0.198327,-0.851207,0.000000,0.536017,0.000000,-1.508839
LINE462,0.000000,1.191697,0.000000,-1.331936,0.344846,1.259002
LINE463,1.652481,-0.857147,1.552741,3.337349,1.104434,1.259000
LINE464,0.000000,-0.337275,0.000000,3.856367,0.000000,1.752924
LINE465,0.000000,1.859727,0.000000,-0.311955,0.000000,4.637664
LINE466,0.921809,-0.847277,168.292217,3.360136,0.250231,1.233311
LINE467,0.000000,2.663043,0.000000,3.999583,0.000000,2.779847
LINE468,0.000000,2.306140,0.000000,3.200499,0.000000,0.910573
LINE469,0.198327,-0.851207,0.000000,0.604287,0.000000,-1.505429
LINE470,0.000000,1.340937,0.000000,-1.257548,0.344846,1.259002
LINE471,1.652481,-0.857147,1.552741,3.337349,1.104434,1.259000
LINE472,0.000000,-0.270384,0.000000,3.932795,0.000000,1.624734
LINE473,0.000000,1.888357,0.000000,-0.267978,0.000000,4.646078
LINE474,0.921809,-0.847277,168.292217,3.360136,0.250231,1.233311
LINE475,0.000000,2.703551,0.000000,0.198973,0.000000,4.560158
LINE476,0.198327,-0.851207,0.000000,0.563457,0.000000,-1.500566
LINE477,0.000000,1.436580,0.000000,-1.186607,0.344846,1.259002
LINE478,1.652481,-0.857147,1.552741,3.337349,1.104434,1.259000
LINE479,0.000000,-0.180168,0.000000,4.141828,0.000000,1.650296
LINE480,0.000000,1.880551,0.000000,-0.393825,0.000000,4.614311
LINE481,0.468994,-0.845859,168.292217,3.360136,0.250231,1.233311
LINE482,0.000000,-0.834783,0.000000,3.390751,0.000000,1.852201
LINE483,0.452816,-0.848746,0.000000,-0.188376,0.000000,4.702338
LINE484,0.198327,-0.851207,0.000000,0.681213,0.000000,-1.523231
LINE485,0.000000,1.665209,0.000000,-0.930883,0.344846,1.259002
LINE486,1.652481,-0.857147,1.552741,3.337349,1.104434,1.259000
LINE487,0.000000,-0.054369,0.000000,3.973588,0.000000,1.808632
LINE488,0.000000,0.415461,0.000000,4.627124,0.000000,-1.564306
LINE489,0.468994,-0.845859,168.292217,3.360136,0.250231,1.233311
LINE490,0.000000,-0.969983,0.000000,0.370697,0.000000,1.110148
LINE491,0.233002,-0.848746,0.000000,-0.158679,0.000000,4.704112
LINE492,0.219813,-0.848746,0.000000,3.089002,0.000000,1.499435
LINE493,0.198327,-0.851207,0.000000,1.532166,0.000000,-1.526376
LINE494,0.000000,1.512211,0.000000,-1.257650,0.344846,1.259002
LINE495,1.652481,-0.857147,1.552741,3.337349,1.104434,1.259000
LINE496,0.000000,-0.070574,0.000000,3.841880,0.000000,1.845265
LINE497,0.000000,1.484859,0.000000,3.546587,0.000000,3.234494
LINE498,0.468994,-0.845859,168.292217,3.360136,0.250231,1.233311
LINE499,0.000000,3.529073,0.000000,1.023776,0.000000,1.023776
LINE500,0.233002,-0.848746,0.000000,-0.113309,0.000000,4.706622
LINE501,0.219813,-0.848746,0.000000,3.102871,0.000000,4.691692
LINE502,0.198327,-0.851207,0.000000,0.917777,0.000000,-1.531971
LINE503,0.000000,1.822130,0.000000,-0.117842,0.344846,1.259002
LINE504,1.652481,-0.857147,1.552741,3.337349,1.104434,1.259000
LINE505,0.000000,0.065595,0.000000,3.756524,0.000000,1.873710
LINE506,0.000000,-0.149575,0.000000,-0.149575,0.000000,3.066247
LINE507,0.468994,-0.845859,168.292217,3.360136,0.250231,1.233311
LINE508,0.000000,1.472893,0.000000,4.371694,0.000000,-1.437496
LINE509,0.233002,-0.848746,0.000000,-0.128865,0.000000,-1.566515
LINE510,0.198327,-0.851207,0.000000,1.104473,0.000000,-1.538721
LINE511,0.000000,2.731138,0.000000,0.029438,0.344846,1.259002
LINE512,0.000000,-0.435632,0.145821,3.337352,0.000000,4.609141
LINE513,1.652481,-0.857147,1.406920,3.337348,1.104434,1.259000
LINE514,0.000000,0.192653,0.000000,3.783568,0.000000,1.962262
LINE515,0.000000,-1.267353,168.292217,3.360136,0.250231,1.233311
LINE516,0.000000,1.173170,0.000000,-1.495058,0.000000,2.996186
LINE517,0.468994,-0.845859,0.000000,3.801695,0.000000,1.303682
LINE518,0.233002,-0.848746,0.000000,0.080466,0.000000,-1.570584
LINE519,0.198327,-0.851207,0.000000,1.206903,0.000000,-1.535913
LINE520,0.000000,2.999872,0.000000,0.758520,0.344846,1.259002
LINE521,0.000000,0.634491,0.145821,3.337352,0.000000,4.594591
LINE522,1.652481,-0.857147,1.406920,3.337348,1.104434,1.259000
LINE523,0.000000,-0.162739,0.000000,3.117842,0.000000,1.823048
LINE524,0.000000,-1.316188,168.292217,3.360136,0.250231,1.233311
LINE525,0.000000,1.584206,0.000000,1.584206,0.000000,-1.541918
LINE526,0.468994,-0.845859,0.000000,3.800188,0.000000,1.301769
LINE527,0.233002,-0.848746,0.000000,-0.144349,0.000000,4.670267
LINE528,0.198327,-0.851207,0.000000,2.517751,0.000000,-1.533595
LINE529,0.000000,-0.360416,0.000000,0.115771,0.344846,1.259002
LINE530,1.652481,-0.857147,1.406920,3.337348,1.104434,1.259000
LINE531,0.000000,-0.380664,0.000000,3.546038,0.000000,1.720661
LINE532,0.000000,-1.344252,168.292217,3.360136,0.250231,1.233311
LINE533,0.000000,0.053901,0.000000,0.439564,0.000000,-0.988271
LINE534,0.468994,-0.845859,0.000000,3.870261,0.000000,1.327880
LINE535,0.233002,-0.848746,0.000000,0.493393,0.000000,4.678569
LINE536,0.198327,-0.851207,0.000000,3.185883,0.000000,-1.540722
LINE537,0.000000,-0.245546,0.000000,4.566782,0.122224,1.259002
LINE538,0.000000,3.265612,0.000000,0.474367,0.222622,1.259002
LINE539,1.652481,-0.857147,1.406920,3.337348,1.104434,1.259000
LINE540,0.000000,-0.843218,0.000000,-1.344168,0.000000,1.523798
LINE541,0.000000,-1.356893,168.292217,3.360136,0.250231,1.233311
LINE542,0.000000,3.386770,0.000000,-0.709517,0.000000,1.889389
LINE543,0.468994,-0.845859,0.000000,3.812004,0.000000,1.393892
LINE544,0.233002,-0.848746,0.000000,4.475540,0.000000,-1.567969
LINE545,0.198327,-0.851207,0.000000,3.145800,0.000000,-1.540977
LINE546,0.000000,-0.326114,0.000000,4.372802,0.122224,1.259002
LINE547,1.652481,-0.857147,1.406920,3.337348,1.104434,1.259000
LINE548,0.000000,0.016897,0.000000,3.953121,0.000000,1.666123
LINE549,0.000000,-1.319120,168.292217,3.360136,0.250231,1.233311
LINE550,0.000000,2.581533,0.000000,2.581533,0.000000,1.082060
LINE551,0.232306,-0.845859,0.000000,3.929266,0.000000,1.406331
LINE552,0.236689,-0.845859,0.000000,0.381521,0.000000,4.695963
LINE553,0.233002,-0.848746,0.000000,3.271585,0.000000,4.708633
LINE554,0.198327,-0.851207,0.000000,3.378851,0.000000,-1.528484
LINE555,0.000000,-0.712362,0.000000,3.156494,0.122224,1.259002
LINE556,1.652481,-0.857147,1.406920,3.337348,1.104434,1.259000
LINE557,0.000000,0.441049,0.000000,1.876196,0.000000,4.405381
LINE558,0.000000,-1.308179,168.292217,3.360136,0.250231,1.233311
LINE559,0.000000,0.691757,0.000000,3.174562,0.000000,3.992680
LINE560,0.232306,-0.845859,0.000000,4.006954,0.000000,1.196778
LINE561,0.236689,-0.845859,0.000000,2.767349,0.000000,1.520284
LINE562,0.233002,-0.848746,0.000000,4.114513,0.000000,1.383083
LINE563,0.198327,-0.851207,0.000000,3.570879,0.000000,-1.525587
LINE564,1.652481,-0.857147,1.406920,3.337348,1.104434,1.259000
LINE565,0.000000,0.086084,0.000000,2.912645,0.000000,1.470530
LINE566,0.000000,-1.009321,167.838030,3.360152,0.250231,1.233311
LINE567,0.000000,4.581247,0.000000,2.275961,0.000000,3.406996
LINE568,0.000000,2.527797,0.454195,3.354174,0.000000,4.640585
LINE569,0.232306,-0.845859,0.000000,4.006466,0.000000,1.465857
LINE570,0.198327,-0.851207,0.000000,1.196258,0.000000,-1.526089
LINE571,1.652481,-0.857147,1.406920,3.337348,1.104434,1.259000
LINE572,0.000000,-1.024605,167.838030,3.360152,0.250231,1.233311
LINE573,0.000000,0.139934,0.000000,0.139934,0.000000,1.307937
LINE574,0.000000,2.548383,0.454195,3.354174,0.000000,4.641529
LINE575,0.232306,-0.845859,0.000000,3.693279,0.000000,1.269731
LINE576,0.198327,-0.851207,0.000000,0.115451,0.000000,-1.522050
LINE577,1.652481,-0.857147,1.406920,3.337348,1.104434,1.259000
LINE578,0.000000,1.002956,167.838030,3.360152,0.250231,1.233311
LINE579,0.000000,-0.495840,0.000000,-1.224486,0.000000,0.891646
LINE580,0.000000,-0.850742,0.000000,3.672522,0.000000,1.714959
LINE581,0.000000,2.593549,0.454195,3.354174,0.000000,4.656256
LINE582,0.232306,-0.845859,0.000000,3.549430,0.000000,0.516564
LINE583,0.198327,-0.851207,0.000000,-0.627765,0.000000,-0.896818
LINE584,0.000000,-0.258088,0.124378,3.337352,0.000000,1.595079
LINE585,1.652481,-0.857147,1.282542,3.337348,1.104434,1.259000
LINE586,0.000000,0.070225,167.838030,3.360152,0.250231,1.233311
LINE587,0.000000,3.456091,0.000000,2.351058,0.000000,4.711575
LINE588,0.000000,-1.063980,0.000000,3.679800,0.000000,1.563890
LINE589,0.000000,2.592159,0.454195,3.354174,0.000000,4.677508
LINE590,0.232306,-0.845859,0.000000,-1.255679,0.000000,4.575598
LINE591,0.198327,-0.851207,0.000000,-0.101698,0.000000,1.100047
LINE592,0.000000,-0.265713,0.124378,3.337351,0.000000,1.597157
LINE593,1.652481,-0.857147,1.282542,3.337348,1.104434,1.259000
LINE594,0.000000,3.931383,167.838030,3.360152,0.000000,1.767688
LINE595,0.000000,1.152246,0.000000,2.666137,0.250231,1.233311
LINE596,0.000000,-0.858330,0.000000,3.615468,0.000000,1.711446
LINE597,0.000000,2.578649,0.454195,3.354174,0.000000,4.684914
LINE598,0.232306,-0.845859,0.000000,-0.495868,0.000000,1.530281
LINE599,0.198327,-0.851207,0.000000,-0.608838,0.000000,1.421999
LINE600,0.000000,-0.273755,0.124378,3.337352,0.000000,1.599438
LINE601,0.000000,3.104164,0.000000,0.033126,0.244453,1.259001
LINE602,1.652481,-0.857147,1.282542,3.337348,0.859981,1.259000
LINE603,0.000000,2.807006,167.838030,3.360152,0.000000,1.641325
LINE604,0.000000,3.897368,0.000000,0.261635,0.000000,4.635236
LINE605,0.000000,4.063871,0.000000,0.062367,0.000000,1.883119
LINE606,0.000000,-0.786770,0.000000,1.241659,0.250231,1.233311
LINE607,0.000000,4.500395,0.000000,4.634165,0.000000,1.463911
LINE608,0.000000,-1.460523,0.000000,3.585917,0.000000,1.752469
LINE609,0.000000,2.565990,0.454195,3.354174,0.000000,4.687456
LINE610,0.232306,-0.845859,0.000000,-1.113499,0.000000,4.710572
LINE611,0.198327,-0.851207,0.000000,0.225677,0.000000,-1.538876
LINE612,0.000000,-0.246255,0.124378,3.337352,0.000000,1.586893
LINE613,0.000000,4.432580,0.000000,-0.434583,0.244453,1.259001
LINE614,1.652481,-0.857147,1.282542,3.337348,0.859981,1.259000
LINE615,0.000000,2.379336,167.838030,3.360152,0.000000,1.621474
LINE616,0.000000,1.405360,0.000000,1.410408,0.000000,2.123517
LINE617,0.000000,2.968796,0.000000,2.968796,0.000000,1.473963
LINE618,0.000000,1.648493,0.000000,-0.291119,0.250231,1.233311
LINE619,0.000000,4.395769,0.000000,3.527367,0.000000,1.856806
LINE620,0.000000,2.501076,0.454195,3.354174,0.000000,4.691626
LINE621,0.198327,-0.851207,0.000000,-1.218196,0.000000,4.693805
LINE622,0.000000,-0.039122,0.124378,3.337352,0.000000,1.586603
LINE623,0.000000,1.145001,0.223029,3.337346,0.000000,1.721756
LINE624,1.652481,-0.857147,1.059513,3.337348,0.859981,1.259000
LINE625,0.000000,2.288676,167.838030,3.360152,0.000000,1.613935
LINE626,0.000000,3.425711,0.000000,3.388835,0.000000,1.967989
LINE627,0.000000,2.515843,0.454195,3.354174,0.000000,4.674741
LINE628,0.198327,-0.851207,0.000000,-0.987196,0.000000,1.512458
LINE629,0.000000,-0.101879,0.124378,3.337351,0.000000,1.579642
LINE630,0.000000,0.883184,0.223029,3.337346,0.000000,1.617046
LINE631,1.652481,-0.857147,1.059513,3.337348,0.859981,1.259000
LINE632,0.000000,3.074074,167.838030,3.360152,0.000000,1.565697
LINE633,0.000000,2.814519,0.000000,3.171053,0.000000,2.585840
LINE634,0.000000,2.495214,0.454195,3.354174,0.000000,4.666959
LINE635,0.000000,-0.144318,0.124378,3.337351,0.000000,1.577285
LINE636,0.000000,-0.398087,0.223029,3.337346,0.000000,4.612365
LINE637,1.652481,-0.857147,1.059513,3.337348,0.859981,1.259000
LINE638,0.000000,0.000000,167.838030,3.360152,0.000000,3.074074
LINE639,0.000000,3.161627,0.000000,3.207018,0.000000,2.854776
LINE640,0.000000,2.459636,0.454195,3.354174,0.000000,4.666088
LINE641,0.000000,-0.133787,0.124378,3.337351,0.000000,1.579670
LINE642,0.000000,-0.264000,0.223029,3.337346,0.000000,4.592664
LINE643,1.652481,-0.857147,1.059513,3.337348,0.859981,1.259000
LINE644,0.000000,2.538774,0.000000,3.208209,0.000000,3.097470
LINE645,0.000000,2.446656,0.454195,3.354174,0.000000,4.662745
LINE646,0.000000,-0.151676,0.124378,3.337351,0.000000,1.582255
LINE647,0.000000,0.185973,0.223029,3.337346,0.000000,4.631311
LINE648,1.652481,-0.857147,1.059513,3.337348,0.859981,1.259000
LINE649,0.000000,2.843359,0.000000,2.246546,0.000000,4.540219
LINE650,0.000000,2.478333,0.454195,3.354174,0.000000,4.663160
LINE651,0.000000,-0.123257,0.124378,3.337351,0.000000,1.572457
LINE652,0.000000,0.451178,0.223029,3.337346,0.000000,4.662009
LINE653,1.652481,-0.857147,1.059513,3.337348,0.859981,1.259000
LINE654,0.000000,2.658968,0.000000,2.007682,0.000000,3.992680
LINE655,0.000000,2.433090,0.204388,3.354174,0.000000,2.804365
LINE656,0.000000,-0.214524,0.249807,3.354174,0.000000,1.485730
LINE657,0.000000,-0.114663,0.124378,3.337351,0.000000,1.581478
LINE658,0.000000,0.258862,0.223029,3.337346,0.000000,4.635439
LINE659,1.652481,-0.857147,1.059513,3.337348,0.859981,1.259000
LINE660,0.000000,2.978550,0.000000,2.701833,0.000000,4.213276
LINE661,0.000000,2.746987,0.204388,3.354174,0.000000,4.654288
LINE662,0.000000,0.059574,0.249807,3.354174,0.000000,1.521359
LINE663,0.000000,-0.125222,0.124378,3.337351,0.000000,1.582157
LINE664,0.000000,0.228979,0.223029,3.337346,0.000000,4.683876
LINE665,1.652481,-0.857147,1.059513,3.337348,0.859981,1.259000
LINE666,0.000000,2.860363,0.000000,2.736887,0.000000,4.361689
LINE667,0.000000,2.745801,0.204388,3.354174,0.000000,-1.190149
LINE668,0.000000,4.567858,0.249807,3.354174,0.000000,1.580791
LINE669,0.000000,-0.185632,0.124378,3.337351,0.000000,1.583713
LINE670,0.000000,2.772236,0.223029,3.337346,0.000000,-1.565891
LINE671,0.723504,-0.857162,0.000000,2.431925,0.000000,-1.200148
LINE672,0.928977,-0.857135,1.059513,3.337348,0.859981,1.259000
LINE673,0.000000,2.476712,0.000000,2.983808,0.000000,2.154948
LINE674,0.000000,4.588913,0.204388,3.354174,0.000000,4.708956
LINE675,0.000000,3.648043,0.249807,3.354174,0.000000,4.678914
LINE676,0.000000,-0.224302,0.124378,3.337351,0.000000,1.579257
LINE677,0.000000,-0.317411,0.223029,3.337346,0.000000,-1.525441
LINE678,0.723504,-0.857162,0.000000,2.484135,0.000000,-1.299129
LINE679,0.928977,-0.857135,1.059513,3.337348,0.859981,1.259000
LINE680,0.000000,2.764289,0.000000,1.419063,0.000000,3.706528
LINE681,0.000000,2.896960,0.204388,3.354174,0.000000,1.536437
LINE682,0.000000,-0.283697,0.124378,3.337351,0.000000,1.583708
LINE683,0.000000,4.677644,0.223029,3.337346,0.000000,-1.490058
LINE684,0.723504,-0.857162,0.000000,2.579998,0.000000,-1.430696
LINE685,0.928977,-0.857135,1.059513,3.337348,0.859981,1.259000
LINE686,0.000000,-0.211484,0.124378,3.337351,0.000000,1.597214
LINE687,0.000000,0.096157,0.223029,3.337346,0.000000,4.687358
LINE688,0.723504,-0.857162,0.000000,2.434559,0.000000,-1.423851
LINE689,0.000000,0.235007,0.000000,4.088993,0.445264,1.259004
LINE690,0.928977,-0.857135,1.059513,3.337348,0.414717,1.258996
LINE691,0.000000,-0.112827,0.124378,3.337351,0.000000,1.595828
LINE692,0.723504,-0.857162,0.000000,2.395802,0.000000,-1.447933
LINE693,0.000000,0.276013,0.000000,4.105423,0.235728,1.259004
LINE694,0.000000,-1.029118,0.000000,-0.093406,0.209536,1.259004
LINE695,0.000000,3.844784,0.184434,3.337343,0.000000,1.582454
LINE696,0.928977,-0.857135,0.875079,3.337349,0.414717,1.258996
LINE697,0.000000,-0.159076,0.124378,3.337351,0.000000,1.578496
LINE698,0.723504,-0.857162,0.000000,2.410680,0.000000,-1.461845
LINE699,0.000000,0.256385,0.000000,4.272125,0.235728,1.259004
LINE700,0.000000,-0.042379,0.000000,2.022669,0.209536,1.259004
LINE701,0.000000,2.514604,0.184434,3.337343,0.000000,4.603313
LINE702,0.928977,-0.857135,0.875079,3.337349,0.414717,1.258996
LINE703,0.000000,-0.136939,0.124378,3.337351,0.000000,1.587700
LINE704,0.723504,-0.857162,0.000000,2.281432,0.000000,-1.492413
LINE705,0.000000,0.254795,0.000000,4.017553,0.235728,1.259004
LINE706,0.928977,-0.857135,0.875079,3.337349,0.414717,1.258996
LINE707,0.000000,2.814861,0.000000,1.915413,0.000000,4.416079
LINE708,0.000000,-0.136300,0.124378,3.337351,0.000000,1.586606
LINE709,0.723504,-0.857162,0.000000,2.214783,0.000000,-1.503175
LINE710,0.000000,0.179610,0.000000,3.842496,0.235728,1.259004
LINE711,0.477898,-0.857121,0.875079,3.337349,0.414717,1.258996
LINE712,0.451079,-0.857151,0.000000,3.495761,0.000000,0.992132
LINE713,0.000000,2.779173,0.000000,1.317902,0.000000,4.334416
LINE714,0.000000,-0.114929,0.124378,3.337351,0.000000,1.583340
LINE715,0.723504,-0.857162,0.000000,2.230480,0.000000,-1.503047
LINE716,0.000000,0.142671,0.000000,4.044393,0.235728,1.259004
LINE717,0.477898,-0.857121,0.875079,3.337349,0.414717,1.258996
LINE718,0.451079,-0.857151,0.000000,3.487497,0.000000,1.090648
LINE719,0.000000,2.704016,0.000000,1.342558,0.000000,4.289105
LINE720,0.000000,-0.250215,0.124378,3.337351,0.000000,1.571604
LINE721,0.723504,-0.857162,0.000000,2.191308,0.000000,-1.504024
LINE722,0.000000,0.573228,0.000000,4.383375,0.235728,1.259004
LINE723,0.477898,-0.857121,0.424684,3.337348,0.414717,1.258996
LINE724,0.000000,-1.031663,0.450395,3.337350,0.000000,1.556851
LINE725,0.451079,-0.857151,0.000000,3.474290,0.000000,1.180118
LINE726,0.000000,2.756625,0.000000,1.632896,0.000000,4.056822
LINE727,0.000000,-0.116612,0.124378,3.337352,0.000000,1.632594
LINE728,0.723504,-0.857162,0.000000,2.257505,0.000000,-1.506879
LINE729,0.000000,0.630581,0.000000,-1.013236,0.235728,1.259004
LINE730,0.477898,-0.857121,0.424684,3.337348,0.414717,1.258996
LINE731,0.000000,-1.014907,0.450395,3.337350,0.000000,1.557589
LINE732,0.451079,-0.857151,0.000000,3.456701,0.000000,1.325409
LINE733,0.000000,2.693951,0.000000,1.879085,0.000000,4.709442
LINE734,0.000000,-0.437003,0.124378,3.337351,0.000000,1.571180
LINE735,0.723504,-0.857162,0.000000,2.219630,0.000000,-1.515311
LINE736,0.000000,0.938089,0.000000,4.600614,0.235728,1.259004
LINE737,0.477898,-0.857121,0.424684,3.337348,0.414717,1.258996
LINE738,0.000000,-1.046547,0.450395,3.337350,0.000000,1.558055
LINE739,0.451079,-0.857151,0.000000,3.546177,0.000000,1.287768
LINE740,0.000000,2.724350,0.000000,0.571640,0.000000,4.711055
LINE741,0.000000,-1.030178,0.124378,3.337351,0.000000,1.502526
LINE742,0.723504,-0.857162,0.000000,2.099332,0.000000,-1.526927
LINE743,0.000000,0.050184,0.000000,-0.682688,0.235728,1.259004
LINE744,0.477898,-0.857121,0.424684,3.337348,0.414717,1.258996
LINE745,0.000000,2.912383,0.223053,3.337350,0.000000,-1.487940
LINE746,0.000000,-1.511893,0.227342,3.337350,0.000000,1.560508
LINE747,0.451079,-0.857151,0.000000,3.500552,0.000000,0.875121
LINE748,0.000000,2.597783,0.000000,0.342442,0.000000,4.625271
LINE749,0.000000,-0.505905,0.124378,3.337351,0.000000,3.197349
LINE750,0.723504,-0.857162,0.000000,2.087306,0.000000,-1.530847
LINE751,0.000000,-0.555027,0.000000,-0.555027,0.235728,1.259004
LINE752,0.477898,-0.857121,0.424684,3.337348,0.000000,1.397645
LINE753,0.000000,-0.094177,0.000000,3.955040,0.414717,1.258996
LINE754,0.000000,-0.036461,0.223053,3.337350,0.000000,-1.558858
LINE755,0.000000,-1.232291,0.227342,3.337350,0.000000,1.563119
LINE756,0.451079,-0.857151,0.000000,3.553041,0.000000,0.858635
LINE757,0.000000,2.625555,0.000000,0.543161,0.000000,4.594450
LINE758,0.000000,1.832013,0.124378,3.337351,0.000000,1.679776
LINE759,0.723504,-0.857162,0.000000,2.074669,0.000000,-1.521619
LINE760,0.000000,3.343207,0.000000,3.054981,0.235728,1.259004
LINE761,0.477898,-0.857121,0.424684,3.337348,0.000000,1.320617
LINE762,0.000000,-0.093225,0.000000,3.959041,0.414717,1.258996
LINE763,0.000000,4.272033,0.227342,3.337350,0.000000,1.559983
LINE764,0.451079,-0.857151,0.000000,3.596961,0.000000,0.278212
LINE765,0.000000,2.613237,0.000000,0.721723,0.000000,4.617250
LINE766,0.000000,-1.204212,0.124378,3.337351,0.000000,1.497595
LINE767,0.723504,-0.857162,0.000000,2.106481,0.000000,-1.509590
LINE768,0.000000,-0.133829,0.000000,-1.282738,0.235728,1.259004
LINE769,0.477898,-0.857121,0.424684,3.337348,0.000000,1.368404
LINE770,0.000000,3.482298,0.000000,3.354449,0.218272,1.258997
LINE771,0.000000,-0.065673,0.000000,3.948347,0.196445,1.258996
LINE772,0.000000,3.595157,0.227342,3.337350,0.000000,1.628319
LINE773,0.451079,-0.857151,0.000000,3.585402,0.000000,-0.316215
LINE774,0.000000,2.722709,0.000000,0.222633,0.000000,4.589554
LINE775,0.000000,3.618985,0.124378,3.337351,0.000000,1.496458
LINE776,0.723504,-0.857162,0.000000,2.167508,0.000000,-1.519649
LINE777,0.000000,2.774871,0.000000,4.515164,0.235728,1.259004
LINE778,0.477898,-0.857121,0.424684,3.337348,0.000000,1.386372
LINE779,0.000000,3.935884,0.000000,3.095035,0.218272,1.258997
LINE780,0.000000,-0.107939,0.000000,4.035502,0.196445,1.258996
LINE781,0.000000,3.145476,0.227342,3.337350,0.000000,4.586331
LINE782,0.451079,-0.857151,0.000000,3.594840,0.000000,-0.063115
LINE783,0.000000,3.077433,0.000000,-0.423343,0.000000,4.408941
LINE784,0.000000,3.120836,0.124378,3.337351,0.000000,-0.914965
LINE785,0.723504,-0.857162,0.000000,2.226568,0.000000,-1.525418
LINE786,0.477898,-0.857121,0.424684,3.337348,0.000000,1.368745
LINE787,0.000000,-0.054684,0.000000,4.131404,0.196445,1.258996
LINE788,0.000000,4.244278,0.227342,3.337350,0.000000,2.057985
LINE789,0.451079,-0.857151,0.000000,3.589822,0.000000,-0.219876
LINE790,0.000000,4.313717,0.000000,-0.872522,0.000000,4.440715
LINE791,0.446607,-0.857162,0.000000,2.312295,0.000000,-1.535033
LINE792,0.276897,-0.857162,0.000000,0.389210,0.000000,-1.508063
LINE793,0.477898,-0.857121,0.424684,3.337348,0.000000,1.333120
LINE794,0.000000,-0.147199,0.000000,4.057220,0.196445,1.258996
LINE795,0.000000,2.066090,0.227342,3.337350,0.000000,1.559984
LINE796,0.451079,-0.857151,0.000000,3.538644,0.000000,-1.030287
LINE797,0.000000,2.310487,0.000000,-0.033133,0.000000,4.625956
LINE798,0.446607,-0.857162,0.000000,2.386482,0.000000,-1.520392
LINE799,0.276897,-0.857162,0.000000,1.435291,0.000000,-1.021612
LINE800,0.477898,-0.857121,0.000000,0.312763,0.000000,1.580290
LINE801,0.000000,-1.259781,0.424684,3.337348,0.000000,-1.354148
LINE802,0.000000,-0.099455,0.000000,3.879142,0.196445,1.258996
LINE803,0.000000,2.815066,0.227342,3.337350,0.000000,-1.477625
LINE804,0.451079,-0.857151,0.000000,3.549704,0.000000,-1.124976
LINE805,0.000000,1.441412,0.000000,2.939912,0.000000,4.649411
LINE806,0.446607,-0.857162,0.000000,2.528480,0.000000,-1.517867
LINE807,0.276897,-0.857162,0.000000,0.285334,0.000000,4.541696
LINE808,0.477898,-0.857121,0.000000,0.396178,0.000000,1.552494
LINE809,0.000000,4.591958,0.424684,3.337348,0.000000,-1.334883
LINE810,0.000000,3.104541,0.000000,-1.059714,0.000000,1.960963
LINE811,0.000000,0.252979,0.000000,3.637575,0.196445,1.258996
LINE812,0.000000,2.687037,0.227342,3.337350,0.000000,4.569935
LINE813,0.451079,-0.857151,0.000000,3.498656,0.000000,-1.039228
LINE814,0.000000,1.606030,0.000000,4.210436,0.000000,-1.433741
LINE815,0.446607,-0.857162,0.000000,2.622422,0.000000,-1.531804
LINE816,0.276897,-0.857162,0.000000,3.655604,0.000000,1.569048
LINE817,0.477898,-0.857121,0.000000,0.363547,0.000000,1.550298
LINE818,0.000000,-1.566248,0.424684,3.337348,0.000000,-1.350226
LINE819,0.000000,1.328295,0.000000,1.134003,0.000000,1.960196
LINE820,0.000000,0.349345,0.000000,4.306419,0.196445,1.258996
LINE821,0.451079,-0.857151,0.000000,3.442601,0.000000,-1.392469
LINE822,0.000000,0.401381,0.000000,3.679842,0.000000,4.069443
LINE823,0.446607,-0.857162,0.000000,2.776254,0.000000,-1.516688
LINE824,0.477898,-0.857121,0.000000,0.406035,0.000000,1.508561
LINE825,0.000000,-1.469242,0.424684,3.337348,0.000000,-1.323923
LINE826,0.000000,1.345310,0.000000,1.124938,0.000000,4.024567
LINE827,0.000000,1.009372,0.000000,3.260611,0.196445,1.258996
LINE828,0.451079,-0.857151,0.000000,3.438237,0.000000,-1.394369
LINE829,0.000000,1.720959,0.000000,3.717558,0.000000,-0.441912
LINE830,0.446607,-0.857162,0.000000,2.703344,0.000000,-1.529920
LINE831,0.477898,-0.857121,0.000000,0.370692,0.000000,1.474573
LINE832,0.000000,-1.458053,0.424684,3.337348,0.000000,-1.290439
LINE833,0.000000,3.406796,0.000000,-0.942183,0.000000,-1.393184
LINE834,0.000000,3.275664,0.000000,3.275664,0.196445,1.258996
LINE835,0.451079,-0.857151,0.000000,3.425101,0.000000,-1.327959
LINE836,0.446607,-0.857162,0.000000,2.507218,0.000000,-0.858367
LINE837,0.477898,-0.857121,0.000000,0.546158,0.000000,1.354353
LINE838,0.000000,-1.479287,0.424684,3.337348,0.000000,-1.302600
LINE839,0.000000,4.365287,0.000000,2.380450,0.000000,-1.266262
LINE840,0.451079,-0.857151,0.000000,3.426625,0.000000,-1.308725
LINE841,0.446607,-0.857162,0.000000,2.727352,0.000000,-1.529289
LINE842,0.477898,-0.857121,0.000000,0.470728,0.000000,-1.223532
LINE843,0.000000,-1.510805,0.424684,3.337348,0.000000,-1.562603
LINE844,0.000000,4.611978,0.000000,2.495906,0.000000,-1.107420
LINE845,0.000000,1.368074,0.000000,4.696056,0.000000,3.975975
LINE846,0.451079,-0.857151,0.000000,3.428246,0.000000,-1.304915
LINE847,0.446607,-0.857162,0.000000,3.531334,0.000000,1.567446
LINE848,0.477898,-0.857121,0.000000,0.403574,0.000000,-1.418671
LINE849,0.000000,-1.458461,0.424684,3.337348,0.000000,-1.525515
LINE850,0.000000,4.652868,0.000000,2.535195,0.000000,-1.245268
LINE851,0.000000,3.858130,0.000000,0.999073,0.000000,1.378897
LINE852,0.451079,-0.857151,0.000000,3.442473,0.000000,-1.488070
LINE853,0.446607,-0.857162,0.000000,3.760069,0.000000,1.629955
LINE854,0.477898,-0.857121,0.000000,0.314278,0.000000,1.070858
LINE855,0.000000,-1.283609,0.424684,3.337348,0.000000,-1.521659
LINE856,0.000000,4.676004,0.000000,2.561298,0.000000,-1.328367
LINE857,0.000000,0.314142,0.000000,4.555143,0.000000,-1.094030
LINE858,0.451079,-0.857151,0.000000,3.488154,0.000000,-1.439739
LINE859,0.205438,-0.857163,0.000000,0.275190,0.000000,1.542938
LINE860,0.241168,-0.857162,0.000000,0.164734,0.000000,-1.355502
LINE861,0.477898,-0.857121,0.000000,0.320032,0.000000,0.961149
LINE862,0.000000,-1.257809,0.424684,3.337348,0.000000,-1.535167
LINE863,0.000000,-1.039941,0.000000,2.606615,0.000000,-1.103137
LINE864,0.000000,-0.501537,0.000000,2.453638,0.000000,3.482833
LINE865,0.451079,-0.857151,0.000000,3.397444,0.000000,-0.782566
LINE866,0.477898,-0.857121,0.000000,0.323877,0.000000,1.166563
LINE867,0.000000,-0.531166,0.424684,3.337348,0.000000,3.074074
LINE868,0.000000,-1.190050,0.000000,2.460449,0.000000,-1.211063
LINE869,0.000000,4.621565,0.000000,-1.480316,0.000000,4.550492
LINE870,0.451079,-0.857151,0.000000,3.554482,0.000000,-1.451648
LINE871,0.477898,-0.857121,0.000000,0.310104,0.000000,1.281503
LINE872,0.000000,3.319053,0.201618,3.337349,0.000000,-0.067519
LINE873,0.000000,0.000000,0.223066,3.337348,0.000000,-1.452967
LINE874,0.000000,-1.312994,0.000000,2.557018,0.000000,-1.184539
LINE875,0.000000,1.363293,0.000000,4.711107,0.000000,3.941486
LINE876,0.451079,-0.857151,0.000000,3.664977,0.000000,-1.536922
LINE877,0.477898,-0.857121,0.000000,0.314308,0.000000,1.251978
LINE878,0.000000,3.239223,0.201618,3.337349,0.000000,-1.490953
LINE879,0.000000,-0.067519,0.223066,3.337348,0.000000,-0.067519
LINE880,0.000000,1.837549,0.000000,2.579124,0.000000,-0.070061
LINE881,0.000000,-0.379139,0.000000,2.259027,0.000000,-1.126878
LINE882,0.451079,-0.857151,0.000000,3.692427,0.000000,-1.271214
LINE883,0.477898,-0.857121,0.000000,0.298368,0.000000,0.988953
LINE884,0.000000,3.537722,0.201618,3.337349,0.000000,-1.510116
LINE885,0.000000,0.000000,0.223066,3.337348,0.000000,-0.067519
LINE886,0.451079,-0.857151,0.000000,-0.402718,0.000000,1.565221
LINE887,0.245649,-0.857121,0.000000,0.328552,0.000000,-0.406198
LINE888,0.232249,-0.857121,0.000000,3.587570,0.000000,1.501690
LINE889,0.000000,3.074074,0.201618,3.337349,0.000000,-0.067519
LINE890,0.451079,-0.857151,0.000000,3.996817,0.000000,1.310582
LINE891,0.245649,-0.857121,0.000000,0.302243,0.000000,0.107888
LINE892,0.232249,-0.857121,0.000000,4.384464,0.000000,1.591495
LINE893,0.000000,0.396129,0.201618,3.337349,0.000000,-0.067519
LINE894,0.214375,-0.857150,0.000000,0.166097,0.000000,1.474507
LINE895,0.236704,-0.857151,0.000000,3.492506,0.000000,4.342502
LINE896,0.245649,-0.857121,0.000000,0.391725,0.000000,-0.959348
LINE897,0.232249,-0.857121,0.000000,1.460704,0.000000,-1.511130
LINE898,0.000000,0.000000,0.201618,3.337349,0.000000,-0.067519
LINE899,0.214375,-0.857150,0.000000,-0.115595,0.000000,4.624919
LINE900,0.245649,-0.857121,0.000000,0.365737,0.000000,1.423708
LINE901,0.245649,-0.857121,0.000000,0.905162,0.000000,-1.439551
LINE902,0.245649,-0.857121,0.000000,0.931372,0.000000,-1.505803
LINE903,0.245649,-0.857121,0.000000,1.123824,0.000000,1.451732
LINE904,0.245649,-0.857121,0.000000,3.597537,0.000000,1.568727
LINE905,0.245649,-0.857121,0.000000,3.243687,0.000000,1.881050
